# generated using pymatgen
data_CsPbI3
_symmetry_space_group_name_H-M   'P 1'
_cell_length_a   4.84714164
_cell_length_b   10.65044663
_cell_length_c   18.03119927
_cell_angle_alpha   90.00000000
_cell_angle_beta   90.00000000
_cell_angle_gamma   90.00000000
_symmetry_Int_Tables_number   1
_chemical_formula_structural   CsPbI3
_chemical_formula_sum   'Cs4 Pb4 I12'
_cell_volume   930.84665829
_cell_formula_units_Z   4
loop_
 _symmetry_equiv_pos_site_id
 _symmetry_equiv_pos_as_xyz
  1  'x, y, z'
loop_
 _atom_type_symbol
 _atom_type_oxidation_number
  Cs+  1.0
  Pb2+  2.0
  I-  -1.0
loop_
 _atom_site_type_symbol
 _atom_site_label
 _atom_site_symmetry_multiplicity
 _atom_site_fract_x
 _atom_site_fract_y
 _atom_site_fract_z
 _atom_site_occupancy
  Cs+  Cs0  1  0.75000000  0.58127558  0.17211973  1.0
  Cs+  Cs1  1  0.25000000  0.41872442  0.82788027  1.0
  Cs+  Cs2  1  0.75000000  0.08127558  0.32788027  1.0
  Cs+  Cs3  1  0.25000000  0.91872442  0.67211973  1.0
  Pb2+  Pb4  1  0.25000000  0.66184885  0.43921676  1.0
  Pb2+  Pb5  1  0.75000000  0.33815115  0.56078324  1.0
  Pb2+  Pb6  1  0.25000000  0.16184885  0.06078324  1.0
  Pb2+  Pb7  1  0.75000000  0.83815115  0.93921676  1.0
  I-  I8  1  0.75000000  0.83721116  0.50204455  1.0
  I-  I9  1  0.25000000  0.16278884  0.49795545  1.0
  I-  I10  1  0.75000000  0.33721116  0.99795545  1.0
  I-  I11  1  0.25000000  0.66278884  0.00204455  1.0
  I-  I12  1  0.25000000  0.52927197  0.61230824  1.0
  I-  I13  1  0.75000000  0.47072803  0.38769176  1.0
  I-  I14  1  0.25000000  0.02927197  0.88769176  1.0
  I-  I15  1  0.75000000  0.97072803  0.11230824  1.0
  I-  I16  1  0.25000000  0.79631664  0.28730552  1.0
  I-  I17  1  0.75000000  0.20368336  0.71269448  1.0
  I-  I18  1  0.25000000  0.29631664  0.21269448  1.0
  I-  I19  1  0.75000000  0.70368336  0.78730552  1.0
